*Heading
** Job name: Load1Ela Model name: Load1Ela
** Generated by: Abaqus/CAE 2020
*Preprint, echo=NO, model=NO, history=NO, contact=NO
**
** PARTS
**
*Part, name=PLATE
*Node
      1,           0.,   18.6132145,           0.
      2,           0.,   18.6132145,           2.
      3,           0.,          50.,           2.
      4,           0.,          50.,           0.
      5,   18.6132145,           0.,           0.
      6,   18.6132145,           0.,           2.
      7,          50.,          50.,           0.
      8,          50.,           0.,           0.
      9,          50.,          50.,           2.
     10,          50.,           0.,           2.
     11,          10.,           0.,           2.
     12,           0.,          10.,           2.
     13,           0.,          10.,           0.
     14,          10.,           0.,           0.
     15,           0.,   48.2562904,           0.
     16,           0.,   46.5125809,           0.
     17,           0.,   44.7688675,           0.
     18,           0.,   43.0251579,           0.
     19,           0.,   41.2814484,           0.
     20,           0.,   39.5377388,           0.
** ... 1795 like lines cut
*Element, type=C3D8
   1,  262,   33,  251, 1329,   31,    1,   32,  234
   2,  263,   34,  252, 1328,  262,   33,  251, 1329
   3,  264,   35,  253, 1327,  263,   34,  252, 1328
   4,  265,   36,  254, 1326,  264,   35,  253, 1327
   5,  266,   37,  255, 1325,  265,   36,  254, 1326
   6,  267,   38,  256, 1324,  266,   37,  255, 1325
   7,  251,   61,  721, 1329,   32,    2,   44,  234
   8,  252,   62,  722, 1328,  251,   61,  721, 1329
   9,  253,   63,  723, 1327,  252,   62,  722, 1328
  10,  254,   64,  724, 1326,  253,   63,  723, 1327
  11,  255,   65,  725, 1325,  254,   64,  724, 1326
  12,  256,   66,  726, 1324,  255,   65,  725, 1325
  13,  721,  727, 1367, 1329,   44,   45,  235,  234
  14,  727,  728, 1368, 1367,   45,   46,  236,  235
  15,  728,  729, 1369, 1368,   46,   47,  237,  236
  16,  729,  730, 1370, 1369,   47,   48,  238,  237
  17,  730,  731, 1371, 1370,   48,   49,  239,  238
  18,  731,  732, 1372, 1371,   49,   50,  240,  239
  19,  732,  733, 1373, 1372,   50,   51,  241,  240
  20,  733,  734, 1374, 1373,   51,   52,  242,  241
** ... 1086 like lines cut
*Nset, nset=_PICKEDSET4, internal, generate
    1,  1815,     1
*Elset, elset=_PICKEDSET4, internal, generate
    1,  1106,     1
** Section: Section-1-_PICKEDSET4
*Solid Section, elset=_PICKEDSET4, material=MATERIAL-1
,
*End Part
**  
**
** ASSEMBLY
**
*Assembly, name=Assembly
**  
*Instance, name=PLATE-1, part=PLATE
*End Instance
**  
*Nset, nset=FIXEDNODES1, instance=PLATE-1
    1,    2,    3,    4,   12,   13,   15,   16,   17,   18,   19,   20,   21,   22,   23,   24
   25,   26,   27,   28,   29,   30,   31,   32,   44,   45,   46,   47,   48,   49,   50,   51
   52,   53,   54,   55,   56,   57,   58,   59,   60,   72,  209,  228,  229,  230,  231,  232
  233,  234,  235,  236,  237,  238,  239,  240,  241,  242,  243,  244,  245,  246,  247,  248
  249,  250, 1255, 1256, 1257
*Elset, elset=FIXEDNODES1, instance=PLATE-1
    1,    7,   13,   14,   15,   16,   17,   18,   19,   20,   21,   22,   23,   24,   25,   26
   27,   28,   29,  115,  116,  117,  118,  119,  120,  121,  122,  123,  124,  125,  126,  127
  128,  129,  130,  131, 1022, 1034, 1046, 1058, 1070, 1082, 1094, 1106
*Nset, nset=FIXEDNODES2, instance=PLATE-1
    5,    6,    8,   10,   11,   14,  117,  118,  119,  120,  121,  122,  123,  124,  125,  126
  127,  128,  129,  130,  131,  132,  133,  134,  135,  136,  137,  138,  139,  140,  141,  142
  143,  144,  145,  146,  147,  148,  149,  150,  151,  175,  221,  222,  223,  224,  225,  226
  227, 1202, 1203, 1204, 1205, 1206, 1207, 1208, 1209, 1210, 1211, 1212, 1213, 1214, 1215, 1216
 1217, 1218, 1252, 1253, 1254
*Elset, elset=FIXEDNODES2, instance=PLATE-1
  222,  223,  523,  529,  535,  541,  547,  553,  559,  565,  571,  577,  583,  589,  595,  601
  607,  613,  619,  909,  910,  911,  912,  913,  914,  915,  916,  917,  918,  919,  920,  921
  922,  923,  924,  925, 1011, 1023, 1035, 1047, 1059, 1071, 1083, 1095
*Nset, nset=FIXEDNODES3, instance=PLATE-1
    1,    4,    5,    7,    8,   13,   14,   15,   16,   17,   18,   19,   20,   21,   22,   23
   24,   25,   26,   27,   28,   29,   30,   31,   33,   34,   35,   36,   37,   38,   39,   40
   41,   42,   43,   95,   96,   97,   98,   99,  100,  101,  102,  103,  104,  105,  106,  107
  108,  109,  110,  111,  112,  113,  114,  115,  116,  118,  119,  120,  121,  122,  123,  124
  125,  126,  127,  128,  129,  130,  131,  132,  133,  134,  152,  153,  154,  155,  156,  157
  158,  159,  160,  161,  162,  163,  164,  165,  166,  167,  168,  169,  170,  171,  172,  173
  210,  211,  212,  213,  214,  215,  216,  217,  218,  219,  220,  222,  223,  224,  228,  229
  230,  262,  263,  264,  265,  266,  267,  268,  269,  270,  271,  272,  273,  274,  275,  276
  277,  278,  279,  280,  281,  282,  283,  284,  285,  286,  287,  288,  289,  290,  291,  292
  293,  294,  295,  296,  297,  298,  299,  300,  301,  302,  303,  304,  305,  306,  307,  308
  309,  310,  311,  312,  313,  314,  315,  316,  317,  318,  319,  320,  321,  322,  323,  324
  325,  326,  327,  328,  329,  330,  331,  332,  333,  334,  335,  336,  337,  338,  339,  340
  341,  342,  343,  344,  345,  346,  347,  348,  349,  350,  351,  352,  353,  354,  355,  356
  357,  358,  359,  360,  361,  362,  363,  364,  365,  366,  367,  368,  369,  370,  371,  372
  373,  374,  375,  376,  377,  378,  379,  380,  381,  382,  383,  384,  385,  386,  387,  388
  389,  390,  391,  392,  393,  394,  395,  396,  397,  398,  399,  400,  401,  402,  403,  404
  405,  406,  407,  408,  409,  410,  411,  412,  413,  414,  415,  416,  417,  418,  419,  420
  421,  422,  423,  424,  425,  426,  427,  428,  429,  430,  431,  432,  433,  434,  435,  436
  437,  438,  439,  440,  441,  442,  443,  444,  445,  446,  447,  448,  449,  450,  451,  452
  453,  454,  455,  456,  457,  458,  459,  460,  461,  462,  463,  464,  465,  466,  467,  468
** ... 18 like lines cut
*Elset, elset=FIXEDNODES3, instance=PLATE-1
    1,    2,    3,    4,    5,    6,  115,  116,  117,  118,  119,  120,  121,  122,  123,  124
  125,  126,  127,  128,  129,  130,  131,  132,  133,  134,  135,  136,  137,  138,  139,  140
  141,  142,  143,  144,  145,  146,  147,  148,  149,  150,  151,  152,  153,  154,  155,  156
  157,  158,  159,  160,  161,  162,  163,  164,  165,  166,  167,  168,  169,  170,  171,  172
  173,  174,  175,  176,  177,  178,  179,  180,  181,  182,  183,  184,  185,  186,  187,  188
  189,  190,  191,  192,  193,  194,  195,  196,  197,  198,  199,  200,  201,  202,  203,  204
  205,  206,  207,  208,  209,  210,  211,  212,  213,  214,  215,  216,  217,  218,  219,  220
  221,  222,  229,  230,  231,  232,  233,  234,  235,  236,  237,  238,  239,  240,  241,  242
  243,  244,  245,  246,  247,  248,  249,  250,  251,  252,  253,  254,  255,  256,  257,  258
  259,  260,  261,  262,  263,  264,  265,  266,  267,  268,  269,  270,  271,  272,  273,  274
  275,  276,  277,  278,  279,  280,  281,  282,  283,  284,  285,  286,  287,  288,  289,  290
  291,  292,  293,  294,  295,  296,  297,  298,  299,  300,  301,  302,  303,  304,  305,  306
  307,  308,  309,  310,  311,  312,  313,  314,  315,  316,  317,  318,  319,  320,  321,  322
  323,  324,  325,  326,  327,  328,  329,  330,  331,  332,  333,  334,  335,  336,  337,  338
  339,  340,  341,  342,  343,  344,  345,  346,  347,  348,  349,  350,  351,  352,  353,  354
  355,  356,  357,  358,  359,  360,  361,  362,  363,  364,  365,  366,  367,  368,  369,  370
  371,  372,  373,  374,  375,  376,  377,  378,  379,  380,  381,  382,  383,  384,  385,  386
  387,  388,  389,  390,  391,  392,  393,  394,  395,  396,  397,  398,  399,  400,  401,  402
  403,  404,  405,  406,  407,  408,  409,  410,  411,  412,  413,  414,  415,  416,  417,  418
  419,  420,  421,  422,  423,  424,  425,  426,  427,  428,  429,  430,  431,  432,  433,  434
** ... 15 like lines cut
*Elset, elset=__PICKEDSURF4_S3, internal, instance=PLATE-1, generate
 518,  523,    1
*Elset, elset=__PICKEDSURF4_S4, internal, instance=PLATE-1
  245,  262,  279,  296,  313,  330,  347,  364,  381,  398,  415,  432,  449,  466,  483,  500
  517,  636,  653,  670,  687,  704,  721,  738,  755,  772,  789,  806,  823,  840,  857,  874
  891,  908,  925,  942,  959,  976,  993, 1010
*Elset, elset=_LoadSurf1_S3, internal, instance=PLATE-1, generate
 518,  523,    1
*Elset, elset=_LoadSurf1_S4, internal, instance=PLATE-1
  245,  262,  279,  296,  313,  330,  347,  364,  381,  398,  415,  432,  449,  466,  483,  500
  517,  636,  653,  670,  687,  704,  721,  738,  755,  772,  789,  806,  823,  840,  857,  874
  891,  908,  925,  942,  959,  976,  993, 1010
*Surface, type=ELEMENT, name=LoadSurf1
_LoadSurf1_S3, S3
_LoadSurf1_S4, S4
*End Assembly
** 
** MATERIALS
** 
*Material, name=MATERIAL-1
*Elastic
210000., 0.3
** ----------------------------------------------------------------
** 
** STEP: Step-1
** 
*Step, name=Step-1, nlgeom=NO
*Static
1., 1., 1e-05, 1.
** 
** BOUNDARY CONDITIONS
** 
** Name: Disp-BC-1 Type: Displacement/Rotation
*Boundary
FIXEDNODES1, 1, 1
** Name: Disp-BC-2 Type: Displacement/Rotation
*Boundary
FIXEDNODES2, 2, 2
** Name: Disp-BC-3 Type: Displacement/Rotation
*Boundary
FIXEDNODES3, 3, 3
** 
** LOADS
** 
** Name: SURFFORCE-1   Type: Pressure
*Dsload
LoadSurf1, P, -100.
** 
** OUTPUT REQUESTS
** 
*Restart, write, frequency=0
** 
** FIELD OUTPUT: F-Output-2
** 
*Output, field
*Element Output, directions=YES
E, NFORC, S
** 
** FIELD OUTPUT: F-Output-1
** 
*Node Output
U, 
** 
** HISTORY OUTPUT: H-Output-1
** 
*Output, history, variable=PRESELECT
*End Step
